LTspice 24.1.6 for Windows
Circuit: C:\Users\gonfi\OneDrive\Universidad\4to Año\Aplicada II\Unidad 2\Tp2\Desarrollo\tp2.net
Start Time: Thu May 21 00:54:20 2026
solver = Normal
Maximum thread count: 16
tnom = 27
temp = 27
method = trap
Early termination of direct N-R iteration.
Direct Newton iteration failed to find .op point.  (Use ".option noopiter" to skip.)
Starting Gmin stepping
Gmin = 10
vernier = 0.5
vernier = 0.25
vernier = 0.125
Gmin = 5.6588
vernier = 0.0625
vernier = 0.03125
vernier = 0.015625
Gmin = 5.48561
vernier = 0.0078125
vernier = 0.00390625
vernier = 0.00195312
vernier = 0.000976562
Gmin = 5.49362
vernier = 0.000488281
Gmin = 0
Gmin stepping failed

Starting source stepping with srcstepmethod=0
Source Step = 3.0303%
Source Step = 9.84848%
Source Step = 17.4242%
Source Step = 25%
Source Step = 32.5758%
Source Step = 40.1515%
vernier = 0.375
Source Step = 50.7576%
Source Step = 62.1212%
Source Step = 73.4848%
Source Step = 84.8485%
Source Step = 96.2121%
vernier = 0.5625
Source stepping succeeded in finding the operating point.

Total elapsed time: 11.298 seconds.

Files loaded:
C:\Users\gonfi\OneDrive\Universidad\4to Año\Aplicada II\Unidad 2\Tp2\Desarrollo\tp2.net
C:\Users\gonfi\AppData\Local\LTspice\lib\cmp\standard.dio
C:\Users\gonfi\OneDrive\Universidad\4to Año\Aplicada II\Unidad 2\Tp2\Desarrollo\TL082.301

